11
Coordinates from ORCA-job cpd-BP86-final-opt
  C   -2.00745682842853      0.63270203523349     -0.14791396973350
  C   -0.82212985781926      1.54834473993976     -0.26894289621026
  C   0.35414411446397      0.62433255107238     -0.12532095279090
  C   -0.09916290836470     -0.64254259226956      0.05321381028138
  C   -1.56664201712418     -0.63734519063962      0.03919591717681
  H   -3.04295610387418      0.96467995201327     -0.20529797833022
  H   -0.81094647079375      2.08962197796132     -1.23337769885070
  H   1.39287575857428      0.94895841038275     -0.16296203567340
  H   0.51387718745502     -1.53409044238018      0.18741328132220
  H   -2.18844115378106     -1.52450738479462      0.16163780539181
  H   -0.82670172030760      2.33867594348102      0.50482471741679
