10
Coordinates from ORCA-job dmso-BP86-final-opt
  C   1.84032160299487     -0.56962993820591     -0.59827965036249
  S   0.10774444052534     -1.06613076113938     -0.83120988236679
  C   -0.58495729071063     -0.12509340171535      0.56057163816286
  O   -0.37525989916949     -0.38854197891893     -2.10325951497116
  H   2.41080686740468     -1.01890492174917     -1.42054861224460
  H   2.19413042399627     -0.96355251820870      0.36392704830433
  H   1.90838360001485      0.52607007466386     -0.62788571105858
  H   -0.17703690251408     -0.52903291002113      1.49692964382871
  H   -1.67174978897714     -0.27106431699571      0.53077696388679
  H   -0.32908305356467      0.93621067229041      0.44135807682092
