10

C         -0.52460        0.02687       -0.00872
O          0.54807       -0.06292        0.78239
C          1.76908       -0.09062        0.02959
H         -1.85843        0.02077        1.61991
H          2.61091       -0.16483        0.73364
H          1.87908        0.83257       -0.55964
H          1.78842       -0.96361       -0.64057
C         -1.74261        0.06370        0.53774
H         -2.62539        0.13682       -0.09607
O         -0.39881        0.08023       -1.33350
